[TITLE]
Modelagem_Bacia_Monjolinho_Montante

[OPTIONS]
FLOW_UNITS           CMS
INFILTRATION         CURVE_NUMBER
FLOW_ROUTING         DYNWAVE
START_DATE           01/21/2012
START_TIME           00:00:00
REPORT_START_DATE    01/21/2012
REPORT_START_TIME    00:05:00
END_DATE             01/23/2012
END_TIME             12:00:00
SWEEP_START          01/01
SWEEP_END            01/31
DRY_DAYS             0
REPORT_STEP          00:15:00
WET_STEP             00:05:00
DRY_STEP             01:00:00
ROUTING_STEP         0:01:00 
ALLOW_PONDING        NO
INERTIAL_DAMPING     PARTIAL
VARIABLE_STEP        0.75
LENGTHENING_STEP     0
MIN_SURFAREA         0
NORMAL_FLOW_LIMITED  BOTH
SKIP_STEADY_STATE    NO
FORCE_MAIN_EQUATION  H-W
LINK_OFFSETS         ELEVATION
MIN_SLOPE            0

[EVAPORATION]
;;Type       Parameters
;;---------- ----------
MONTHLY      4.95   5.93   5.65   4.14   2.66   2.41   2.65   4.3    5.89   4.57   5.52   5.01  
DRY_ONLY     NO

[RAINGAGES]
;;               Rain      Time   Snow   Data      
;;Name           Type      Intrvl Catch  Source    
;;-------------- --------- ------ ------ ----------
LLUVIA1          VOLUME    1:00   1.0    TIMESERIES Jan2012         

[SUBCATCHMENTS]
;;                                                 Total    Pcnt.             Pcnt.    Curb     Snow    
;;Name           Raingage         Outlet           Area     Imperv   Width    Slope    Length   Pack    
;;-------------- ---------------- ---------------- -------- -------- -------- -------- -------- --------
1                LLUVIA1          N-4              254      1.5      2114.57  2.8      0                        
2                LLUVIA1          N-8              50       3        1326.11  1.5      0                        
3                LLUVIA1          N-8              78       0.5      1600.27  2.7      0                        
4                LLUVIA1          N-16             74       1        1932.77  0.3      0                        
5                LLUVIA1          N-16             191      7        3080.42  1.8      0                        
6                LLUVIA1          N-18             4        1        349.04   1.3      0                        
7                LLUVIA1          N-18             136      16       2442.90  2.4      0                        
8                LLUVIA1          N-25             131      0.8      1241.74  3.3      0                        
9                LLUVIA1          N-25             22       0.8      571.77   2.3      0                        
10               LLUVIA1          N-25             193      0.8      1642.14  3        0                        
11               LLUVIA1          N-30             34       45       1564.0   0.2      0                        
12               LLUVIA1          N-30             193      58       2449.81  2.8      0                        
13               LLUVIA1          N-37             54       13       1544.46  0.1      0                        
14               LLUVIA1          N-37             200      1        1577.15  2.9      0                        
15               LLUVIA1          N-44             70       42       1967.63  0.1      0                        
16               LLUVIA1          N-44             221      55       2465.99  1.9      0                        
17               LLUVIA1          N-51             99       12       2481.36  0.1      0                        
18               LLUVIA1          N-51             226      1        1920.01  1.6      0                        
19               LLUVIA1          N-57             19       2        1258.44  0.3      0                        
20               LLUVIA1          N-57             105      66       2263.41  1.6      0                        
21               LLUVIA1          N-61             26       2        1443.44  0.2      0                        
22               LLUVIA1          N-61             340      1.2      2366.39  1.2      0                        
23               LLUVIA1          N-67             246      40       3376.61  0.6      0                        
24               LLUVIA1          N-67             353      18       1913.78  2.1      0                        
25               LLUVIA1          N-74             96       92       1874.81  0.8      0                        
26               LLUVIA1          N-74             145      80       1784.25  3.3      0                        
27               LLUVIA1          N-81             107      92       2165.68  0.8      0                        
28               LLUVIA1          N-91             510      7        2284.77  1.2      0                        
29               LLUVIA1          N-100            44       12       1702.28  1.3      0                        
30               LLUVIA1          N-100            192      17       1534.22  2.2      0                        
31               LLUVIA1          N-104            133      20       1673.22  1        0                        
32               LLUVIA1          N-104            154      60       2312.27  3.2      0                        
33               LLUVIA1          N-81             118      94       2059.70  0.5      0                        
34               LLUVIA1          N-83             15       94       1365.17  2.2      0                        
35               LLUVIA1          N-86             201      94       1744.32  3.2      0                        
36               LLUVIA1          N-83             139      95       2218.70  0.7      0                        
37               LLUVIA1          N-110            34       95       1930.63  2.2      0                        
38               LLUVIA1          N-114            30       66       1472.59  3.3      0                        
39               LLUVIA1          N-114            66       92       884.20   1.7      0                        
40a              LLUVIA1          N-119            31       37       1886.88  0.5      0                        
40b              LLUVIA1          N-124            77       35       2170.07  0.3      0                        
41               LLUVIA1          N-132            321      65       3260.06  2        0                        
42               LLUVIA1          N-136            263      70       2700.10  2        0                        
43               LLUVIA1          N-146            142      8        2134.56  3.4      0                        
44               LLUVIA1          N-146            117      23       1348.50  2.9      0                        
45               LLUVIA1          N-153            164      68       2754.83  0.3      0                        
46               LLUVIA1          N-153            67       55       1505.97  4.1      0                        
47               LLUVIA1          N-158            64       93       1921.86  0.9      0                        
48               LLUVIA1          N-158            121      14       1777.68  3.2      0                        
49               LLUVIA1          N-172            72       80       1466.44  3.1      0                        
50               LLUVIA1          N-166            93       23       1520.39  3.9      0                        
51               LLUVIA1          N-172            82       75       1721.10  3.2      0                        
52               LLUVIA1          N-176            227      89       2774.82  1        0                        
53               LLUVIA1          N-176            466      87       3556.89  4.2      0                        
54               LLUVIA1          N-178            127      90       2264.55  3        0                        
55               LLUVIA1          N-139            162      95       2361.28  0.6      0                        
56               LLUVIA1          N-139            7        10       702.64   3.6      0                        
57               LLUVIA1          N-142            84       15       2218.33  2.2      0                        

[SUBAREAS]
;;Subcatchment   N-Imperv   N-Perv     S-Imperv   S-Perv     PctZero    RouteTo    PctRouted 
;;-------------- ---------- ---------- ---------- ---------- ---------- ---------- ----------
1                0.020      0.15       1.47       3.13       0          OUTLET    
2                0.020      0.15       1.47       3.13       0          OUTLET    
3                0.020      0.15       1.47       3.13       0          OUTLET    
4                0.020      0.15       1.47       3.13       0          OUTLET    
5                0.020      0.15       1.47       3.13       0          OUTLET    
6                0.020      0.15       1.47       3.13       0          OUTLET    
7                0.020      0.15       1.47       3.13       0          OUTLET    
8                0.020      0.15       1.47       3.13       0          OUTLET    
9                0.020      0.15       1.47       3.13       0          OUTLET    
10               0.020      0.15       1.47       3.13       0          OUTLET    
11               0.020      0.15       1.47       3.13       0          OUTLET    
12               0.020      0.124      1.47       3.13       77         OUTLET    
13               0.020      0.124      1.47       3.13       13         OUTLET    
14               0.020      0.15       1.47       3.13       0          OUTLET    
15               0.020      0.15       1.47       3.13       30         OUTLET    
16               0.020      0.124      1.47       3.13       40         OUTLET    
17               0.020      0.124      1.47       3.13       4          OUTLET    
18               0.020      0.15       1.47       3.13       0          OUTLET    
19               0.020      0.15       1.47       3.13       0          OUTLET    
20               0.020      0.15       1.47       3.13       30         OUTLET    
21               0.020      0.15       1.47       3.13       0          OUTLET    
22               0.020      0.15       1.47       3.13       0          OUTLET    
23               0.020      0.15       1.47       3.13       30         OUTLET    
24               0.020      0.15       1.47       3.13       0          OUTLET    
25               0.020      0.124      1.47       3.13       77         OUTLET    
26               0.020      0.124      1.47       3.13       77         OUTLET    
27               0.020      0.124      1.47       3.13       77         OUTLET    
28               0.020      0.15       1.47       3.13       0          OUTLET    
29               0.020      0.15       1.47       3.13       4          OUTLET    
30               0.020      0.15       1.47       3.13       5          OUTLET    
31               0.020      0.15       1.47       3.13       20         OUTLET    
32               0.020      0.124      1.47       3.13       55         OUTLET    
33               0.020      0.124      1.47       3.13       77         OUTLET    
34               0.020      0.124      1.47       3.13       77         OUTLET    
35               0.020      0.124      1.47       3.13       77         OUTLET    
36               0.020      0.124      1.47       3.13       77         OUTLET    
37               0.020      0.124      1.47       3.13       77         OUTLET    
38               0.020      0.124      1.47       3.13       55         OUTLET    
39               0.020      0.124      1.47       3.13       77         OUTLET    
40a              0.020      0.124      1.47       3.13       27         OUTLET    
40b              0.020      0.124      1.47       3.13       25         OUTLET    
41               0.020      0.15       1.47       3.13       30         OUTLET    
42               0.020      0.124      1.47       3.13       67         OUTLET    
43               0.02       0.15       1.47       3.13       0          OUTLET    
44               0.02       0.15       1.47       3.13       10         OUTLET    
45               0.02       0.124      1.47       3.13       55         OUTLET    
46               0.02       0.124      1.47       3.13       50         OUTLET    
47               0.02       0.124      1.47       3.13       77         OUTLET    
48               0.02       0.124      1.47       3.13       14         OUTLET    
49               0.02       0.124      1.47       3.13       77         OUTLET    
50               0.02       0.124      1.47       3.13       15         OUTLET    
51               0.02       0.124      1.47       3.13       75         OUTLET    
52               0.020      0.124      1.47       3.13       77         OUTLET    
53               0.020      0.124      1.47       3.13       77         OUTLET    
54               0.020      0.124      1.47       3.13       77         OUTLET    
55               0.020      0.124      1.47       3.13       77         OUTLET    
56               0.020      0.124      1.47       3.13       2          OUTLET    
57               0.020      0.124      1.47       3.13       7          OUTLET    

[INFILTRATION]
;;Subcatchment   CurveNum   HydCon     DryTime   
;;-------------- ---------- ---------- ----------
1                58         0.5        8         
2                58         0.5        8         
3                58         0.5        8         
4                58         0.5        8         
5                58         0.5        8         
6                65         0.5        8         
7                72         0.5        8         
8                65         0.5        8         
9                65         0.5        8         
10               65         0.5        8         
11               72         0.5        8         
12               80         0.5        8         
13               72         0.5        8         
14               58         0.5        8         
15               80         0.5        8         
16               88         0.5        8         
17               80         0.5        8         
18               65         0.5        8         
19               80         0.5        8         
20               80         0.5        8         
21               88         0.5        8         
22               65         0.5        8         
23               93         0.5        8         
24               72         0.5        8         
25               93         0.5        8         
26               93         0.5        8         
27               93         0.5        8         
28               65         0.5        8         
29               65         0.5        8         
30               65         0.5        8         
31               72         0.5        8         
32               65         0.5        8         
33               88         0.5        8         
34               93         0.5        8         
35               93         0.5        8         
36               93         0.5        8         
37               93         0.5        8         
38               80         0.5        8         
39               88         0.5        8         
40a              80         0.5        8         
40b              80         0.5        8         
41               80         0.5        8         
42               80         0.5        8         
43               83         0.5        8         
44               85         0.5        8         
45               86         0.5        8         
46               86         0.5        8         
47               90         0.5        8         
48               86         0.5        8         
49               90         0.5        8         
50               86         0.5        8         
51               90         0.5        8         
52               92         0.5        8         
53               93         0.5        8         
54               95         0.5        8         
55               95         0.5        8         
56               95         0.5        8         
57               88         0.5        8         

[JUNCTIONS]
;;               Invert     Max.       Init.      Surcharge  Ponded    
;;Name           Elev.      Depth      Depth      Depth      Area      
;;-------------- ---------- ---------- ---------- ---------- ----------
N-1              900        1          0          0          0         
N-2              890        1          0          0          0         
N-3              880        1          0          0          0         
N-4              870        1          0          0          0         
N-5              910        1          0          0          0         
N-6              880        1          0          0          0         
N-7              865        1          0          0          0         
N-8              860        1          0          0          0         
N-9              900        1          0          0          0         
N-10             885        1          0          0          0         
N-11             858        1          0          0          0         
N-12             900        1          0          0          0         
N-13             895        1          0          0          0         
N-14             880        1          0          0          0         
N-15             875        1          0          0          0         
N-16             855        1          0          0          0         
N-17             853        1          0          0          0         
N-18             850        1          0          0          0         
N-19             905        1          0          0          0         
N-20             900        1          0          0          0         
N-21             885        1          0          0          0         
N-22             900        1          0          0          0         
N-23             875        1          0          0          0         
N-24             847        1          0          0          0         
N-25             843        1          0          0          0         
N-26             880        1          0          0          0         
N-27             877        1          0          0          0         
N-28             860        1          0          0          0         
N-29             842        1          0          0          0         
N-30             840        1          0          0          0         
N-31             905        1          0          0          0         
N-32             885        1          0          0          0         
N-33             880        1          0          0          0         
N-34             870        1          0          0          0         
N-35             855        1          0          0          0         
N-36             839        1          0          0          0         
N-37             838.27     1          0          0          0         
N-38             900        1          0          0          0         
N-39             890        1          0          0          0         
N-40             887        1          0          0          0         
N-41             885        1          0          0          0         
N-42             838        2          0          0          0         
N-43             837.8      2          0          0          0         
N-44             837.5      2          0          0          0         
N-45             880        2          0          0          0         
N-46             875        2          0          0          0         
N-47             870        2          0          0          0         
N-48             860        2          0          0          0         
N-49             843        2          0          0          0         
N-50             837.3      3          0          0          0         
N-51             837        3          0          0          0         
N-52             892        2          0          0          0         
N-53             885        2          0          0          0         
N-54             875        2          0          0          0         
N-55             865        2          0          0          0         
N-56             836.5      1          0          0          0         
N-57             836        1          0          0          0         
N-58             860        1          0          0          0         
N-59             855        1          0          0          0         
N-60             835.6      1          0          0          0         
N-61             835        1          0          0          0         
N-62             890        1          0          0          0         
N-63             885        1          0          0          0         
N-64             881        1          0          0          0         
N-65             845        1          0          0          0         
N-66             832.06     1          0          0          0         
N-67             825.4      1          0          0          0         
N-68             880        1          0          0          0         
N-69             875.7      1          0          0          0         
N-70             862        1          0          0          0         
N-71             850        1          0          0          0         
N-72             823.01     1          0          0          0         
N-73             822        1          0          0          0         
N-74             820        1          0          0          0         
N-75             850        1          0          0          0         
N-76             830        1          0          0          0         
N-77             818.42     2.5        0          0          0         
N-78             816.19     2.5        0          0          0         
N-79             814.26     2.5        0          0          0         
N-80             813.06     2.5        0          0          0         
N-81             810.10     2.5        0          0          0         
N-82             807.07     2.5        0          0          0         
N-83             805.05     2.5        0          0          0         
N-84             865        1.5        0          0          0         
N-85             835        1.5        0          0          0         
N-86             815.23     1.5        0          0          0         
N-87             811.92     1.5        0          0          0         
N-88             808.05     1.5        0          0          0         
N-89             860        1          0          0          0         
N-90             850        1          0          0          0         
N-91             837        1          0          0          0         
N-92             860        1          0          0          0         
N-93             850        1          0          0          0         
N-94             842        1          0          0          0         
N-95             840        1          0          0          0         
N-96             855        1          0          0          0         
N-97             855        1          0          0          0         
N-98             858        1          0          0          0         
N-99             835.5      1.4        0          0          0         
N-100            829.11     1.4        0          0          0         
N-101            860        1          0          0          0         
N-102            823.09     1.5        0          0          0         
N-103            821.32     1.5        0          0          0         
N-104            816.10     1.5        0          0          0         
N-105            845        1          0          0          0         
N-106            827        1          0          0          0         
N-107            809        1.5        0          0          0         
N-108            808.03     1.5        0          0          0         
N-109            803.70     3          0          0          0         
N-110            800.39     3          0          0          0         
N-111            798.40     3.5        0          0          0         
N-112            795.09     3.5        0          0          0         
N-113            790.09     3.5        0          0          0         
N-114            787.10     3.5        0          0          0         
N-115            786.37     3.5        0          0          0         
N-116            785.56     3.5        0          0          0         
N-117            784.97     3.5        0          0          0         
;PONTO CASA BRANCA
N-118            784.10     3.5        0          0          0         
N-119            783.02     3.5        0          0          0         
N-120            782.64     3.5        0          0          0         
N-121            782        3.5        0          0          0         
N-122            781.91     3.5        0          0          0         
N-123            781        3.5        0          0          0         
N-124            780.72     3.5        0          0          0         
N-125            815        3          0          0          0         
N-126            800        3          0          0          0         
N-127            860        0.6        0          0          0         
N-128            845        0.6        0          0          0         
N-129            840        0.6        0          0          0         
N-130            835        0.6        0          0          0         
N-131            826        0.6        0          0          0         
N-132            823.38     0.6        0          0          0         
N-133            815.56     0.6        0          0          0         
N-134            810.18     0.6        0          0          0         
N-135            790.76     0.6        0          0          0         
N-136            780.02     3.5        0          0          0         
N-137            850        0.6        0          0          0         
N-138            845        0.6        0          0          0         
;PONTO CRISTO REDENTOR
N-139            770.70     3.5        0          0          0         
N-140            764.84     3.5        0          0          0         
N-141            763        3.5        0          0          0         
N-142            762.27     3.5        0          0          0         
N-143            905        2.5        0          0          0         
N-144            900        2.5        0          0          0         
N-145            890        2.5        0          0          0         
N-146            850        2.5        0          0          0         
N-147            900        2          0          0          0         
N-148            889        2          0          0          0         
N-149            900        2          0          0          0         
N-150            865.70     2          0          0          0         
N-151            848.20     2.5        0          0          0         
N-152            847.87     2.5        0          0          0         
N-153            845.27     2.5        0          0          0         
N-154            883        2          0          0          0         
N-155            870        2          0          0          0         
N-156            855        2          0          0          0         
N-157            843.50     3          0          0          0         
N-158            840.10     3          0          0          0         
N-159            900        3          0          0          0         
N-160            885        3          0          0          0         
N-161            860        3          0          0          0         
N-162            858        3          0          0          0         
N-163            826.07     3.2        0          0          0         
N-165            875        3          0          0          0         
N-166            860        3          0          0          0         
N-167            870        3          0          0          0         
N-168            848.07     2.5        0          0          0         
N-169            837.12     2.5        0          0          0         
N-170            827.80     2.5        0          0          0         
N-171            824.01     2.5        0          0          0         
;PONTO FORUM
N-172            815.18     3          0          0          0         
N-173            812.36     3          0          0          0         
N-174            810.31     3          0          0          0         
N-175            808.45     3          0          0          0         
N-176            800.01     3          0          0          0         
N-177            797.02     3          0          0          0         
N-178            787.66     3          0          0          0         
N-179            785.14     2.5        0          0          0         
N-180            783.09     2.5        0          0          0         
N-181            782.04     2.5        0          0          0         
N-182            781.39     2.5        0          0          0         

[OUTFALLS]
;;               Invert     Outfall    Stage/Table      Tide
;;Name           Elev.      Type       Time Series      Gate
;;-------------- ---------- ---------- ---------------- ----
40               760        FREE                        NO

[CONDUITS]
;;               Inlet            Outlet                      Manning    Inlet      Outlet     Init.      Max.      
;;Name           Node             Node             Length     N          Offset     Offset     Flow       Flow      